Version 4
SHEET 1 880 680
FLAG 160 224 clk
IOPIN 160 224 In
FLAG 160 160 adc_data
IOPIN 160 160 In
FLAG 160 192 shift_en
IOPIN 160 192 In
FLAG 256 192 voltage_sr
IOPIN 256 192 Out
