Version 4
SHEET 1 1008 680
WIRE 48 96 16 96
WIRE 752 96 352 96
WIRE 48 128 16 128
WIRE 752 128 352 128
WIRE 48 160 16 160
WIRE 752 160 352 160
WIRE 48 192 16 192
WIRE 752 192 352 192
WIRE 752 224 352 224
WIRE 752 256 352 256
WIRE 384 288 352 288
WIRE 32 320 16 320
WIRE 48 320 32 320
WIRE 368 320 352 320
WIRE 384 320 384 288
WIRE 528 320 384 320
WIRE 752 320 736 320
WIRE 368 352 368 320
WIRE 528 352 368 352
WIRE 752 352 736 352
WIRE 752 384 736 384
WIRE 752 416 736 416
WIRE 32 448 32 320
WIRE 528 448 32 448
WIRE 752 448 736 448
FLAG 16 96 spi_s_data_ext
IOPIN 16 96 In
FLAG 16 128 mode_ext
IOPIN 16 128 In
FLAG 16 160 left_freq_button_ext
IOPIN 16 160 In
FLAG 16 192 right_freq_button_ext
IOPIN 16 192 In
FLAG 752 96 spi_cs_ext_port
IOPIN 752 96 Out
FLAG 752 128 spi_sclk_ext_port
IOPIN 752 128 Out
FLAG 752 160 spi_trigger_ext_port
IOPIN 752 160 Out
FLAG 752 192 seg_ext_port
IOPIN 752 192 Out
FLAG 752 224 dp_ext_port
IOPIN 752 224 Out
FLAG 752 320 vga_red_ext
IOPIN 752 320 Out
FLAG 752 352 vga_green_ext
IOPIN 752 352 Out
FLAG 752 384 vga_blue_ext
IOPIN 752 384 Out
FLAG 752 416 H_sync_ext
IOPIN 752 416 Out
FLAG 752 448 V_sync_ext
IOPIN 752 448 Out
FLAG 752 256 an_ext_port
IOPIN 752 256 Out
FLAG 16 320 clk_ext
IOPIN 16 320 In
SYMBOL Voltmeter_shell 240 160 R0
SYMATTR InstName X1
SYMBOL adc_out_to_vga_shell 640 336 R0
SYMATTR InstName X2
TEXT 392 344 Left 2 ;shift_enable_ext
TEXT 392 312 Left 2 ;adc_data_ext  (12)
TEXT 216 32 Center 3 ;final_top_shell
RECTANGLE Normal 752 480 16 48 2
