Version 4
SHEET 1 912 788
WIRE 256 208 240 208
WIRE 432 208 432 176
WIRE 432 208 384 208
WIRE 560 208 560 192
WIRE -96 224 -112 224
WIRE 0 224 -16 224
WIRE 384 224 384 208
WIRE 432 224 432 208
WIRE 256 288 256 208
WIRE 256 288 240 288
WIRE 0 304 0 224
WIRE 0 304 -16 304
WIRE 32 304 0 304
WIRE 48 304 32 304
WIRE 160 304 160 208
WIRE 160 304 128 304
WIRE 176 304 160 304
WIRE 560 304 560 288
WIRE 608 304 560 304
WIRE -112 320 -112 224
WIRE -112 320 -144 320
WIRE -80 320 -112 320
WIRE 160 320 160 304
WIRE 272 320 240 320
WIRE 384 320 384 304
WIRE 384 320 352 320
WIRE 432 320 432 304
WIRE 432 320 384 320
WIRE 560 320 560 304
WIRE 608 320 608 304
WIRE 0 336 -16 336
WIRE 432 336 432 320
WIRE 0 352 0 336
WIRE 32 400 32 304
WIRE 560 416 560 400
WIRE 32 512 32 480
WIRE 32 512 0 512
WIRE 80 512 32 512
WIRE 160 512 80 512
WIRE 176 512 160 512
WIRE 272 512 256 512
WIRE 304 512 272 512
WIRE 320 512 304 512
WIRE 416 512 400 512
WIRE 496 512 416 512
WIRE 496 528 496 512
WIRE 304 560 304 512
WIRE 320 560 304 560
WIRE 416 560 416 512
WIRE 416 560 400 560
WIRE 272 592 272 512
WIRE 272 592 256 592
WIRE 160 608 160 512
WIRE 192 608 160 608
WIRE 272 624 256 624
WIRE 496 624 496 608
WIRE 80 640 32 640
WIRE 272 640 272 624
WIRE 32 656 32 640
FLAG 608 320 0
FLAG 560 192 +VCC
FLAG 560 416 -VCC
FLAG 432 176 0
FLAG 208 272 +VCC
FLAG 208 336 -VCC
FLAG 496 624 0
FLAG 224 576 +VCC
FLAG 224 640 -VCC
FLAG 496 512 Vsource
FLAG 272 640 0
FLAG -48 288 +VCC
FLAG -48 352 -VCC
FLAG -144 320 Vadc
FLAG 0 352 0
FLAG 160 320 Voffset
FLAG 432 416 -VCC
FLAG 32 656 0
FLAG 0 512 Vscaled
SYMBOL voltage 560 192 M0
WINDOW 123 0 0 Left 0
WINDOW 39 0 0 Left 0
SYMATTR InstName V1
SYMATTR Value 9V
SYMBOL voltage 560 304 M0
WINDOW 123 0 0 Left 0
WINDOW 39 0 0 Left 0
SYMATTR InstName V2
SYMATTR Value 9V
SYMBOL res 448 320 M0
SYMATTR InstName R1
SYMATTR Value 6.8k
SYMBOL res 448 208 M0
WINDOW 0 -24 44 Left 2
WINDOW 3 -32 62 Left 2
SYMATTR InstName R2
SYMATTR Value 2.2k
SYMBOL res 400 208 M0
SYMATTR InstName R3
SYMATTR Value 6.8k
SYMBOL OpAmps\\opamp2 208 240 M0
WINDOW 0 -52 103 Left 2
WINDOW 3 -55 116 Left 2
SYMATTR InstName U1
SYMATTR Value LM741
SYMBOL res 144 192 M90
WINDOW 0 -13 64 VBottom 2
WINDOW 3 -17 63 VTop 2
SYMATTR InstName R5
SYMATTR Value 10k
SYMBOL res 256 304 M90
WINDOW 0 0 56 VBottom 2
WINDOW 3 32 56 VTop 2
SYMATTR InstName R4
SYMATTR Value 10k
SYMBOL voltage 496 512 M0
WINDOW 123 0 0 Left 0
WINDOW 39 0 0 Left 0
SYMATTR InstName V3
SYMATTR Value SINE(0 15 1k)
SYMBOL OpAmps\\opamp2 224 544 M0
SYMATTR InstName U2
SYMATTR Value LM741
SYMBOL res 304 496 M90
WINDOW 0 -18 56 VBottom 2
WINDOW 3 -16 58 VTop 2
SYMATTR InstName R6
SYMATTR Value 680k
SYMBOL res 304 544 M90
WINDOW 0 47 55 VBottom 2
WINDOW 3 45 55 VTop 2
SYMATTR InstName R7
SYMATTR Value 68k
SYMBOL res 160 496 M90
WINDOW 0 -10 55 VBottom 2
WINDOW 3 -13 54 VTop 2
SYMATTR InstName R8
SYMATTR Value 10k
SYMBOL OpAmps\\opamp2 -48 256 M0
SYMATTR InstName U4
SYMATTR Value LM741
SYMBOL res 144 320 M270
WINDOW 0 32 56 VTop 2
WINDOW 3 0 56 VBottom 2
SYMATTR InstName R10
SYMATTR Value 10k
SYMBOL res 0 240 M270
WINDOW 0 53 57 VTop 2
WINDOW 3 51 56 VBottom 2
SYMATTR InstName R11
SYMATTR Value 10k
SYMBOL diode 64 512 R0
WINDOW 0 38 30 Left 2
WINDOW 3 36 46 Left 2
SYMATTR InstName D1
SYMATTR Value 1N4148
SYMBOL diode 48 576 R180
WINDOW 0 42 40 Left 2
WINDOW 3 41 25 Left 2
SYMATTR InstName D2
SYMATTR Value 1N4148
SYMBOL diode 64 576 R0
WINDOW 0 35 20 Left 2
WINDOW 3 36 39 Left 2
SYMATTR InstName D3
SYMATTR Value 1N4148
SYMBOL diode 48 640 R180
WINDOW 0 40 42 Left 2
WINDOW 3 38 25 Left 2
SYMATTR InstName D4
SYMATTR Value 1N4148
SYMBOL res 48 384 M0
SYMATTR InstName R9
SYMATTR Value 10k
TEXT 424 672 Right 2 !.tran 1m
TEXT 232 384 Right 2 ;Buffer
TEXT -32 400 Right 2 ;Adder
TEXT 96 680 Right 2 ;Voltage Clipper\n(-1.5V,1.5V)
TEXT 272 696 Right 2 ;-0.16V/V Gain
TEXT 424 656 Right 2 !.lib LM741.lib
